Circuit: * E:\Dropbox\Dima\Teaching courses and tutorials\Plymouth City College\1080\Assignments\LTspice_DC_distribution_systems\DC_Both_Ends.asc

Direct Newton iteration for .op point succeeded.

Date: Sun Jun 02 13:12:28 2024
Total elapsed time: 8.543 seconds.

tnom = 27
temp = 27
method = modified trap
totiter = 2091
traniter = 2088
tranpoints = 1045
accept = 1045
rejected = 0
matrix size = 8
fillins = 0
solver = Normal
Matrix Compiler1: 246 bytes object code size  0.2/0.1/[0.1]
Matrix Compiler2: off  [0.1]/0.3/0.1

